Version 4
SHEET 1 880 680
WIRE 256 80 240 80
WIRE 416 80 336 80
WIRE 112 144 64 144
WIRE 240 144 240 80
WIRE 240 144 192 144
WIRE 288 144 240 144
WIRE 416 160 416 80
WIRE 416 160 352 160
WIRE 464 160 416 160
WIRE 288 176 240 176
WIRE 240 224 240 176
FLAG 240 224 0
FLAG 64 144 Vin
FLAG 464 160 Vout
SYMBOL res 208 128 R90
WINDOW 0 0 56 VBottom 2
WINDOW 3 32 56 VTop 2
SYMATTR InstName Ri
SYMATTR Value 10k
SYMBOL OpAmps\\OP07 320 96 R0
SYMATTR InstName U1
SYMBOL res 352 64 R90
WINDOW 0 0 56 VBottom 2
WINDOW 3 32 56 VTop 2
SYMATTR InstName Rf
SYMATTR Value 10k
